163
E=-6981.649613 / qh-G(298.15K)=-6980.479211 (wB97X-D/(aug-)cc-pVDZ, water solv.)
Si  -0.5424972789  -0.3027615349  0.5760374917
C  -1.2894047691  -6.8185197995  0.81203878
C  -0.4745443451  -5.814884637  0.2918406162
C  -0.8192827469  -4.4959923394  0.5815376911
C  -1.93129969  -4.1897421154  1.3649361597
C  -2.753818158  -5.1886381476  1.8825528462
C  -2.4180836103  -6.5092823005  1.5908996643
C  -0.2251684611  -3.2203455358  0.1824114097
N  -0.9303625029  -2.1844032267  0.7610322357
C  -1.9622502133  -2.7331783247  1.4954057592
N  0.7612429976  -3.1467095492  -0.6633251946
C  1.1988920268  -1.9649268684  -1.1361489599
N  -1.8920263318  0.1060138706  1.89534077
C  -2.1132734464  1.332348142  2.4670996911
C  -3.1246062308  1.2193187969  3.4717111272
C  -3.5232426349  -0.1330941586  3.4841920379
C  -2.7285790489  -0.7978152676  2.5003034226
C  -3.7405388576  2.1609685435  4.3182224053
C  -4.7535506689  1.7180615546  5.1475179328
C  -5.1568652925  0.3563463073  5.1569755247
C  -4.5485195925  -0.5778437892  4.340218271
N  -2.807567729  -2.1222751843  2.2738385195
C  2.1518837225  -1.8613559359  -2.1956024641
C  2.3158558993  -0.4844995787  -2.4514567267
C  1.4691833431  0.2013386559  -1.5253955478
N  0.8073503951  -0.7098632754  -0.743444856
C  2.8871175174  -2.8237296345  -2.9132636131
C  3.7809117736  -2.3731725708  -3.8661671682
C  3.9440784951  -0.9866690246  -4.1269395723
C  3.21837959  -0.0357601551  -3.4346811024
N  1.4227751125  1.5425522263  -1.4336379349
N  -0.1556091442  1.5739944487  0.3915195651
C  0.6939392105  2.1395575834  -0.5352377044
C  0.7117548266  3.5924707476  -0.3566710123
C  -0.1332020909  3.8720186021  0.7152547719
C  -0.6792466255  2.5895677177  1.1627905407
C  1.3910984833  4.6047576614  -1.0306142703
C  1.1934001262  5.9124141233  -0.5901076587
C  0.3420683215  6.1943098052  0.4923367123
C  -0.3350827496  5.176070502  1.1614835812
N  -1.5485554427  2.505236771  2.1281759436
H  2.0542739549  4.378675762  -1.8663530042
H  -1.0498457649  -7.8637403494  0.6098990378
H  0.4032736263  -6.0565190509  -0.308975796
H  -3.6323188194  -4.9500085593  2.4835796935
H  -3.0400784887  -7.3192269336  1.9754070732
H  -3.4302118034  3.2067449976  4.3091465025
H  -5.2565037723  2.4237831386  5.8107564135
H  -5.9612693968  0.0471220156  5.8265138654
H  -4.8553572309  -1.6250024799  4.3454499535
H  2.7587063727  -3.8882734785  -2.7108281253
H  4.3734323778  -3.0920632335  -4.4345710014
H  4.657370315  -0.6719367306  -4.8905149591
H  3.3431983968  1.0296240135  -3.6332091757
H  1.7079633235  6.7333312759  -1.092133964
H  0.2100971501  7.2292690574  0.8119594148
H  -1.0011056804  5.3884239094  1.9985585971
O  -1.7636740787  -0.1247926369  -0.6774786203
C  -1.9227808729  -0.9637828194  -1.7904601504
C  -3.279565739  -0.7308307628  -2.4427436918
C  -4.4587093959  -0.8946934104  -1.4727008049
C  -4.6789416276  0.3933442242  -0.6919476319
N  -5.9385129107  0.4833900322  0.1392122071
C  -7.2083562189  0.5428057151  -0.6831460396
C  -7.2633225752  1.5302375558  -1.852947317
C  -6.8157552824  1.0300309084  -3.2263048487
S  -7.8122305066  -0.3274200698  -3.9021920038
O  -9.2430538163  0.1250493111  -3.8092397604
O  -7.3311871665  -0.4967071067  -5.3153915292
O  -7.5285487178  -1.533756394  -3.0430646833
C  -6.0153509729  -0.6971299749  1.1005202124
C  -6.638862018  -2.0014898267  0.6144838798
C  -6.2511940406  -3.0871877638  1.6137588945
S  -6.8120312591  -4.7312011682  1.1142341279
O  -6.3444446902  -5.6481265815  2.2109968934
O  -8.3112681477  -4.654216966  1.0103002589
O  -6.1496434748  -5.0076538874  -0.2082220335
C  -5.7971224654  1.6860985534  1.0632788826
C  -5.5159304743  3.0548589251  0.4483304855
C  -4.8916784344  3.94956437  1.5141526382
S  -4.7429236913  5.6657594374  0.9622171729
O  -3.9548493459  5.6222426284  -0.318626463
O  -4.0219328434  6.3727190342  2.0764480126
O  -6.1490571579  6.1643301242  0.7624839469
H  -1.1274464814  -0.7903397832  -2.5404322005
H  -1.8637740139  -2.0300053839  -1.5008682206
H  -3.3058420269  0.2713868016  -2.9041596552
H  -3.3859673022  -1.4560036369  -3.2638818258
H  -5.3654306013  -1.1633320587  -2.0338824463
H  -4.2362996086  -1.7271980057  -0.7865421546
H  -3.8402073403  0.5589044055  -0.0049278987
H  -4.7060602764  1.2405025643  -1.385195147
H  -7.9998051813  0.7758705021  0.0399937477
H  -7.3881061811  -0.4649546497  -1.0687955627
H  -6.7151031845  2.4543489345  -1.6394416064
H  -8.3172234603  1.8310370262  -1.9385007581
H  -6.9188750526  1.8415813195  -3.9590164212
H  -5.7766359589  0.6787023133  -3.2628375048
H  -6.5705753373  -0.3442531152  1.9784805126
H  -4.9795627384  -0.8677188599  1.4142639373
H  -6.2826349171  -2.2889409526  -0.3809899858
H  -7.7329032977  -1.9189026537  0.5660241928
H  -6.6860094459  -2.9081751275  2.6075869543
H  -5.1585581316  -3.1658947701  1.719380853
H  -6.7205729171  1.7229352709  1.6549145201
H  -4.9774568392  1.4158249196  1.7415647849
H  -4.816284302  2.9960445777  -0.394602314
H  -6.4463686681  3.5140832928  0.0892471294
H  -5.4914988921  3.9837883621  2.4351812926
H  -3.8700380937  3.6267736934  1.764037271
O  0.6981109744  -0.3867369668  1.8202574541
C  0.5585686494  -0.9967863456  3.07577121
C  1.9222237872  -1.1966081717  3.7247472845
C  2.9045070584  -1.9874614452  2.8484661747
C  3.5816134628  -1.0593188613  1.8498699934
N  4.7426425482  -1.6271041583  1.0655867958
C  5.964880901  -1.9174795919  1.9106334495
C  6.4474138894  -0.8308585679  2.8764934196
C  5.8928458779  -0.8494058444  4.3008364033
S  6.3029732648  -2.3363607089  5.2564426523
O  7.7919469745  -2.5067272316  5.1357836945
O  5.848861017  -2.036232174  6.6567628718
O  5.5364434333  -3.4725334692  4.6276674249
C  4.3135716364  -2.900352638  0.3456051602
C  4.3943901015  -4.2288498439  1.0905615683
C  3.5738279556  -5.2417382189  0.2979307177
S  3.4644566651  -6.8490180146  1.1173435673
O  2.6323647248  -7.6966601404  0.1946229288
O  4.8767123092  -7.3480418203  1.2620517444
O  2.7989806423  -6.5910572463  2.441979597
C  5.0482720783  -0.6609844605  -0.0717782508
C  5.3499022551  0.7971952895  0.2650870025
C  5.0852933975  1.648479501  -0.9724440827
S  5.6423829945  3.3559799808  -0.7575715399
O  4.9509538176  3.8650450761  0.4778641405
O  5.2130092599  4.0670048631  -2.0110514581
O  7.1380750523  3.29149216  -0.6013318086
H  -0.0756774161  -0.3887350247  3.7488980048
H  0.0754131147  -1.988322179  2.9885437374
H  2.3568209101  -0.2178074691  3.9914179957
H  1.7676228359  -1.7381584662  4.670414515
H  3.6543659654  -2.4799443728  3.4843936752
H  2.3473749892  -2.7784409396  2.3218761532
H  2.8490502224  -0.7098063069  1.1122757944
H  3.9652582207  -0.1772879064  2.3731712122
H  6.7558168034  -2.1528598579  1.1876852786
H  5.7500559993  -2.8236393749  2.4845086037
H  6.2974224221  0.1765487256  2.473081091
H  7.5373429159  -0.9569115969  2.9448709624
H  6.3338352952  -0.0217712517  4.8723799423
H  4.8013989868  -0.7519364161  4.3622950765
H  4.9282812871  -2.9641727298  -0.5608600462
H  3.2824754625  -2.7067747468  0.0297342077
H  3.9928858296  -4.1620629896  2.1078259936
H  5.4342647984  -4.5741970452  1.16464206
H  4.0051006608  -5.4367594316  -0.6944321205
H  2.5345374824  -4.9041646533  0.1670979941
H  5.8886859181  -1.1002864745  -0.623926572
H  4.1626991616  -0.7100607386  -0.7185629851
H  4.7163216937  1.1759055509  1.0766574864
H  6.3990095089  0.9135073324  0.567379669
H  5.6142917889  1.2719968346  -1.8599564561
H  4.0100012502  1.7113308596  -1.1964255037
