61
E=-2108.010805 (radical: -2108.143028) / qh-G(298.15K)=-2107.615651 (wB97X-D/(aug-)cc-pVDZ, water solv.)
C  -6.4765850112  -0.5326356529  0.4703105352
C  -5.2924918094  -1.2546943976  0.3747684241
C  -4.1046536401  -0.5266102157  0.2793899881
C  -4.1049510256  0.8714558796  0.2822480812
C  -5.2929010051  1.5992974586  0.3800240665
C  -6.4768344076  0.8767394726  0.4729299278
C  -2.7151085497  -0.9362031065  0.1719533343
N  -1.9113441154  0.1731334106  0.0979374621
C  -2.7152604842  1.2808894105  0.1753085911
N  -2.3457482112  -2.2018080368  0.1664311386
C  -1.0818065945  -2.5695200855  0.094594256
Si  0.0295324924  0.181888029  -0.0092818622
N  0.0222062951  2.1098685587  0.0100020168
C  1.1258801563  2.9151365892  -0.0756142663
C  0.7184376326  4.3106795821  -0.0389996405
C  -0.6750757616  4.3099901028  0.0666772726
C  -1.0833909335  2.9144632811  0.0907229329
C  1.4443930702  5.5017277197  -0.0915348215
C  0.7238677647  6.6899031028  -0.0331716353
C  -0.6807791102  6.6892903788  0.073154237
C  -1.4011428718  5.5005945036  0.1237716955
N  -2.3467044183  2.5475037392  0.1686489783
C  -0.6729772703  -3.9631191767  0.0598814075
C  0.7210369354  -3.9617861804  -0.0464077894
C  1.1290288696  -2.5678933119  -0.0728184619
N  0.025190688  -1.7614995285  0.0267616977
C  -1.39849369  -5.1555769276  0.1066922883
C  -0.6775887753  -6.3426211095  0.0457371261
C  0.7277339585  -6.3413354854  -0.0611668222
C  1.4472977444  -5.1528941412  -0.1097285243
N  2.3904392559  -2.1989966915  -0.1868758402
N  1.9508767958  0.17496114  -0.169599221
C  2.7544497329  -0.9331387864  -0.2288173058
C  4.1455567845  -0.5233949559  -0.3376696224
C  4.1444930329  0.8741118157  -0.3340005186
C  2.7531527275  1.2823234504  -0.2242578023
C  5.3335280097  -1.2504617382  -0.4296600269
C  6.5178340017  -0.5268156334  -0.5197889
C  6.5167933621  0.8818552887  -0.5164199077
C  5.331337816  1.6031951994  -0.4228430708
N  2.3879851245  2.5488109047  -0.1828668521
H  5.3287492388  -2.3407891263  -0.4309125239
O  0.1410173383  0.2628198089  1.7296015013
O  -0.0174846421  0.1653789482  -1.7529772302
H  -7.4265779788  -1.0637973449  0.545440202
H  -5.2870769104  -2.3449199266  0.3737507548
H  -5.2871470264  2.6896162984  0.3830785985
H  -7.4268801104  1.4074577071  0.550151679
H  2.5315272148  5.4962736207  -0.1748646785
H  1.2534042533  7.6430004683  -0.070567507
H  -1.2105466054  7.6420505547  0.1161156977
H  -2.488325015  5.4949366968  0.2051459257
H  -2.4857879118  -5.1509399598  0.18803137
H  -1.2065788937  -7.2961311903  0.0805801716
H  1.2575462594  -7.2939350336  -0.1069960884
H  2.5342666422  -5.1464958665  -0.1938328877
H  7.4682992069  -1.0571511604  -0.5944615331
H  7.4665363678  1.4138644999  -0.5884505728
H  5.3251786356  2.6934036791  -0.4188701178
H  -0.9067925557  0.1666808821  -2.1139545452
H  0.1721759141  -0.5977835749  2.1534491245

