112
E=-4544.900094 / qh-G(298.15K)=-4544.118775 (wB97X-D/(aug-)cc-pVDZ, water solv.)
Si  2.1836765564  0.681416337  0.8779435554
C  3.8641924534  -5.6436219136  0.5980947064
C  4.2870732758  -4.3674720805  0.2324971449
C  3.4952617092  -3.2905392962  0.6276762185
C  2.3258361165  -3.4790675414  1.3620391846
C  1.8945722366  -4.7531175144  1.7284396338
C  2.680843813  -5.833469746  1.3331629943
C  3.615679883  -1.8510491628  0.3894586834
N  2.5612623242  -1.1978117954  0.9867223418
C  1.7628355299  -2.1508022114  1.6012607828
N  4.577192107  -1.3495655611  -0.3365929015
C  4.6072389535  -0.0469268059  -0.6620850117
N  0.6508977134  0.4551291083  2.0478470296
C  -0.1363487671  1.4521528373  2.5597335339
C  -1.0979469171  0.8969252922  3.4562568119
C  -0.8764542178  -0.4975620313  3.4617476182
C  0.2181283385  -0.7338940915  2.5792053042
C  -2.1445411748  1.4646062287  4.2112675791
C  -2.9532555578  0.613340507  4.9382712067
C  -2.7346986805  -0.7915107427  4.937658206
C  -1.7026892544  -1.3565147953  4.2144317963
N  0.7036806482  -1.9663199068  2.327427731
C  5.599207261  0.5148998926  -1.5333825284
C  5.257819028  1.8708204043  -1.7012114417
C  4.0773117433  2.0904163845  -0.9168020819
N  3.7092269592  0.9220166196  -0.3003583948
C  6.7201500044  -0.0340784848  -2.1783207841
C  7.4778173874  0.8024103706  -2.9801829704
C  7.1355396525  2.1673161562  -3.1481386609
C  6.0318020492  2.7143799078  -2.5165133979
N  3.4782344301  3.2889536038  -0.8192691802
N  1.8054166643  2.5761909476  0.7736924128
C  2.4495026241  3.4831019138  -0.0433721856
C  1.8089079952  4.7937344385  0.0833871977
C  0.7652522817  4.6430385321  0.9941663383
C  0.7721784796  3.2415388895  1.4128388312
C  2.0735701376  6.0221000823  -0.5198849153
C  1.2524101977  7.0949687844  -0.1784566578
C  0.1960899863  6.9398041217  0.7363705665
C  -0.0644874892  5.7090917947  1.3359010074
N  -0.0997781268  2.7637846495  2.2475126822
H  2.8907059248  6.1350392877  -1.2333774266
H  4.4562735474  -6.5124899622  0.3061472938
H  5.1998310876  -4.2132269666  -0.3441189699
H  0.9695041803  -4.9051958477  2.2860947366
H  2.3721028109  -6.8466343328  1.5961257938
H  -2.3108384614  2.5428731674  4.2110368324
H  -3.7764369204  1.0208933509  5.5276950985
H  -3.3966187512  -1.4302932334  5.5251138923
H  -1.5329187667  -2.4344481521  4.2147866408
H  6.9811031741  -1.0853359137  -2.0475579942
H  8.3558258293  0.4086484374  -3.495363356
H  7.757286442  2.794625645  -3.7894808676
H  5.7670111003  3.7647940898  -2.6460890321
H  1.4271470461  8.0727097266  -0.6305004203
H  -0.4329158641  7.7989343854  0.9756207013
H  -0.8970525026  5.5785931285  2.0286865927
O  3.2223881649  0.9079327988  2.2798016648
O  1.1096217419  0.4512236906  -0.498140208
C  1.3849198867  -0.3159580358  -1.6389536891
C  0.1106564584  -0.5474121778  -2.4416326719
C  -1.0180648107  -1.1817037716  -1.6157137455
C  -1.7828630128  -0.1041398109  -0.8599207104
N  -3.0480173435  -0.5323685066  -0.1518649837
C  -4.1656635766  -0.9388447357  -1.088407956
C  -4.50571981  -0.0054810829  -2.2541194726
C  -3.777242617  -0.2310984269  -3.5788709141
S  -4.1015800398  -1.8357707648  -4.3608971057
O  -5.5976386112  -1.9623596391  -4.4398881545
O  -3.4390515515  -1.7522895876  -5.7068680094
O  -3.4778794141  -2.8795779005  -3.4691472114
C  -2.7441799192  -1.6845543681  0.7993244172
C  -2.7850932017  -3.1085129827  0.2547612271
C  -2.0914911349  -4.0098698143  1.2710725139
S  -1.9623667845  -5.72143093  0.703634513
O  -1.2589646765  -6.4476912538  1.8175571785
O  -3.3718331414  -6.2017783349  0.4854976887
O  -1.1608115261  -5.6744614441  -0.5690631627
C  -3.4630403669  0.5985736512  0.7793853203
C  -3.6828696894  1.9913528595  0.1942110324
C  -3.5421545035  3.0165678199  1.3150026705
S  -4.0479091886  4.6714618921  0.789532825
O  -3.2396123248  4.9851335313  -0.4398279528
O  -3.7282921365  5.5668587709  1.9552789283
O  -5.5237760172  4.584218299  0.5046029552
H  2.1350903084  0.1783102806  -2.2855830203
H  1.797467383  -1.3062514328  -1.3664974372
H  -0.2317657467  0.4038043023  -2.8842215297
H  0.3593293724  -1.2121012262  -3.2829509054
H  -1.6943416103  -1.7426453186  -2.2769777279
H  -0.5724587244  -1.9021950693  -0.9119155731
H  -1.1337669933  0.3395758586  -0.0948438954
H  -2.0701237845  0.6950380016  -1.5513510451
H  -5.0423279418  -1.0625659996  -0.4403411894
H  -3.9038376174  -1.9197982823  -1.4950572746
H  -4.3910595895  1.050112093  -1.9850427293
H  -5.5805938097  -0.1423871972  -2.4403719308
H  -4.1213899248  0.5093150906  -4.3133355416
H  -2.6846813998  -0.1513144887  -3.5127708133
H  -3.4599663487  -1.5992042484  1.6264758861
H  -1.7500583673  -1.458354861  1.2019289751
H  -2.2734978871  -3.2005465522  -0.7098076167
H  -3.8216380328  -3.4430796283  0.1145106609
H  -2.633162592  -4.0481216933  2.2270904424
H  -1.0594247431  -3.6813181218  1.4668738867
H  -4.3756152865  0.2559244441  1.283430482
H  -2.6637183739  0.6415890114  1.5302882208
H  -2.948298487  2.23732911  -0.5825983245
H  -4.6857107847  2.0709863513  -0.2459435645
H  -4.1760930989  2.7757807391  2.1807048783
H  -2.4975628188  3.10898967  1.6494985346
H  3.3382441639  1.8372155524  2.4889999057
