61
E=-2108.149222 / qh-G(298.15K)=-2107.758009 (wB97X-D/(aug-)cc-pVDZ, water solv.)
C  -6.4953294872  -0.5300768071  0.4400056948
C  -5.3058973934  -1.2499283572  0.3520943324
C  -4.1188280683  -0.5239805858  0.2640806191
C  -4.1187819714  0.869780732  0.2663106086
C  -5.3056340822  1.5958452386  0.3562968244
C  -6.4952624902  0.8760950502  0.4421024907
C  -2.7202949479  -0.9443178763  0.1661798015
N  -1.9101799986  0.1742981116  0.090657975
C  -2.7202228123  1.290172181  0.1690599564
N  -2.3698915346  -2.1969007557  0.1721464717
C  -1.0807034452  -2.5774001239  0.099633336
Si  0.0317882825  0.1829954503  -0.0109501154
N  0.0244019548  2.1164549401  0.0181774152
C  1.1291118673  2.9248502795  -0.0623628992
C  0.726294829  4.2978057824  -0.0205448038
C  -0.6794077108  4.2968174993  0.0824528686
C  -1.0823545435  2.9233852387  0.0997127349
C  1.4462450662  5.5057934947  -0.0656481657
C  0.7307297611  6.687970835  -0.004189118
C  -0.6844112578  6.686993696  0.0994853335
C  -1.3997784147  5.5039240674  0.1427625822
N  -2.3706516491  2.5442355148  0.1739863466
C  -0.6767484979  -3.948220448  0.0755926862
C  0.7298311629  -3.9478308545  -0.0304298317
C  1.1318733229  -2.5766943292  -0.0667955834
N  0.0263615192  -1.7673922481  0.021882536
C  -1.3960082435  -5.1576168002  0.1303461608
C  -0.6803395853  -6.3391185369  0.0786583239
C  0.7356687842  -6.3386891417  -0.0280697383
C  1.450088516  -5.1566279065  -0.0840417858
N  2.4173437669  -2.1946565005  -0.186706967
N  1.9506876629  0.176171281  -0.1761449275
C  2.7605549022  -0.9409717019  -0.2367217115
C  4.1581468153  -0.5200491226  -0.3553113259
C  4.157555089  0.8733853692  -0.349771118
C  2.7594807951  1.2920019051  -0.2293329645
C  5.3443496465  -1.2450674505  -0.4559721094
C  6.5327309213  -0.5240955766  -0.5534263521
C  6.5320724394  0.8817618976  -0.5479421381
C  5.342878614  1.6005733195  -0.4449585742
N  2.4148854131  2.5464805084  -0.1774247261
H  5.3391168264  -2.3357465917  -0.4585780151
O  0.1436368034  0.2442714455  1.7451232752
O  -0.0318635475  0.1735647216  -1.7701486445
H  -7.4448222408  -1.0635014173  0.5092065195
H  -5.2999840324  -2.3406067989  0.3518458927
H  -5.2993201408  2.6865144657  0.3593449648
H  -7.4446572615  1.4094545176  0.512980762
H  2.5344399804  5.5047543338  -0.146158622
H  1.2591053147  7.6426430148  -0.0359093664
H  -1.2130469056  7.6409570895  0.1452834453
H  -2.488091735  5.501548433  0.221634333
H  -2.4842164875  -5.1565793772  0.2111486547
H  -1.2080557739  -7.2938355808  0.1197094951
H  1.2642073359  -7.2930425273  -0.0667186702
H  2.5381168749  -5.1546863783  -0.1671664507
H  7.4816397463  -1.0567830123  -0.6352051528
H  7.4804344308  1.4160403939  -0.6254489301
H  5.3362998545  2.6912251939  -0.4390414276
H  -0.9357319303  0.1697883278  -2.0921565418
H  0.173155877  -0.6337836853  2.1312542432
