175
E=-7641.812208 / qh-G(298.15K)=-7640.556707 (wB97X-D/(aug-)cc-pVDZ, water solv.)
Si  0.0002329381  -0.3926689618  0.0019722662
C  -0.5357678112  -6.9144419427  0.4727931732
C  -1.0792434119  -5.7207026316  0.9435427705
C  -0.5276949854  -4.5338880736  0.4662220842
C  0.5242994936  -4.5361248113  -0.4464541175
C  1.0747292527  -5.7252730409  -0.9192372244
C  0.5301279616  -6.9166934584  -0.4439346376
C  -0.8180808353  -3.1318886137  0.7651204644
N  -0.0006626038  -2.3213226453  0.0056634196
C  0.8160013922  -3.1355493664  -0.750701933
N  -1.6637905132  -2.7849514313  1.6910530814
C  -1.816253324  -1.4999384952  2.0586048558
N  1.2549506171  -0.39959021  -1.4719209285
C  1.670672345  0.6992954184  -2.1782228131
C  2.5166515121  0.2866782367  -3.2543222266
C  2.6079844793  -1.1175500363  -3.1734953567
C  1.8156868382  -1.5094714043  -2.0504041703
C  3.211151957  0.9990934652  -4.2494632799
C  3.9887475622  0.2782798293  -5.1367017982
C  4.0712441507  -1.1373057538  -5.062103464
C  3.3830459053  -1.8455506715  -4.0945516777
N  1.6620260013  -2.7929363302  -1.6779453117
C  -2.6081872953  -1.102991931  3.1801964909
C  -2.5155585778  0.3014460652  3.2556525734
C  -1.6692005217  0.7091679489  2.1779717827
N  -1.2544925772  -0.3927923836  1.4758827678
C  -3.3839125118  -1.82675072  4.1040253485
C  -4.0714488407  -1.1141736216  5.0688682557
C  -3.9876455074  0.3016054496  5.1380526995
C  -3.2093909151  1.0183045265  4.2480564788
N  -1.3858226007  1.9987104247  1.9185430029
N  0.001110352  1.5352286345  -0.0017129329
C  -0.6358323705  2.3465837903  0.911838706
C  -0.3839931747  3.7492994994  0.5745251105
C  0.3881446938  3.7467221618  -0.5865096502
C  0.6387678028  2.3425006823  -0.9184045935
C  -0.7761526564  4.9394066057  1.1824189468
C  -0.3784272811  6.1314503521  0.5787562414
C  0.3845987649  6.128842655  -0.599980258
C  0.7813065074  4.9341282011  -1.199019143
N  1.3884458001  1.9900831964  -1.9237444128
H  -1.3741760119  4.9447944017  2.094291527
H  -0.9414779885  -7.8656685049  0.8210086649
H  -1.9056274344  -5.7110835968  1.655160693
H  1.9011268468  -5.7191534919  -1.6308802622
H  0.9349409607  -7.8696236999  -0.7885155069
H  3.1406919983  2.0864772733  -4.3084291197
H  4.5456696074  0.8011019191  -5.9160406038
H  4.6876006608  -1.671162172  -5.7873585988
H  3.4369644403  -2.9336607214  -4.0393537624
H  -3.4388374919  -2.9150139632  4.0529871759
H  -4.6882928327  -1.6446839671  5.7961612966
H  -4.5440790335  0.8279183554  5.9153881688
H  -3.1379345664  2.1058408229  4.3028530225
H  -0.6698260934  7.0830975813  1.0261530914
H  0.6767966298  7.0785012641  -1.0510682437
H  1.3792876631  4.9354576299  -2.1109331257
O  1.3553069121  -0.3497323639  1.1105271956
Si  1.8706994111  -0.9229085077  2.596987449
C  3.6418402522  -0.3073374171  2.8518752592
C  4.574214735  -0.5557916367  1.6557622048
C  4.5494938009  0.6523348556  0.7336172275
N  5.522904147  0.6142105568  -0.4220907666
C  6.9742263834  0.6938264572  0.0091197538
C  7.3617181969  1.757520013  1.0437799639
C  7.3427155854  1.3594462224  2.5194609594
S  8.4917206614  0.0268820368  2.9617219783
O  9.8292980517  0.4363473475  2.4104621825
O  8.4590875046  -0.0335321709  4.4625899805
O  7.9585784541  -1.2273553691  2.3166480344
C  5.2877305503  -0.6590775646  -1.232910576
C  6.0557837496  -1.9165481776  -0.8378056629
C  5.3936813799  -3.1085969296  -1.5205580782
S  6.0985840613  -4.68723296  -0.9909241917
O  5.3350210262  -5.7302886677  -1.7601320392
O  7.5588147494  -4.6410298329  -1.3513084339
O  5.8660139119  -4.7636949097  0.4937457303
C  5.1639702489  1.730146957  -1.3876090213
C  5.2101370481  3.1723106572  -0.9031077684
C  4.4734119178  4.0264168289  -1.929582823
S  4.6983765121  5.7968111316  -1.6320754506
O  4.3021309051  6.0364854245  -0.201335518
O  3.7950606384  6.4785624131  -2.6220111127
O  6.1573368299  6.0704123543  -1.8817196927
C  0.8606191833  -0.2916089163  4.0524510513
C  1.9277949181  -2.8070868169  2.6361312728
H  2.4845540781  -3.1395841319  3.5264977967
H  2.4325353295  -3.2143553013  1.7453598276
H  0.9195826143  -3.2439413907  2.689470127
H  3.6405696535  0.760220395  3.1331907676
H  4.0248576913  -0.8469328455  3.733996455
H  5.6006350195  -0.7607265743  1.9915587064
H  4.2402674975  -1.4498923069  1.1075919247
H  3.5477600942  0.7653312216  0.2933375029
H  4.7688655577  1.5640669  1.3005322602
H  7.5328721535  0.854810947  -0.9211187222
H  7.2499825325  -0.2882065679  0.4023727014
H  6.7659798639  2.6709050985  0.9435735073
H  8.3909975341  2.052645066  0.7947105986
H  7.6648288248  2.2157624327  3.1270042243
H  6.3593163584  1.0406256246  2.8887430428
H  5.5143128144  -0.4140195326  -2.2780334077
H  4.2072800462  -0.8332384203  -1.1671371985
H  6.052753672  -2.0810655181  0.245683823
H  1.4217741534  -0.4814059422  4.9816324072
H  7.1036488301  -1.8473869913  -1.1591371947
H  5.5095407468  -3.0746559629  -2.6124009392
H  4.3201779097  -3.1764108919  -1.2852166103
H  5.8344728421  1.6104132215  -2.2481615805
H  4.1467664321  1.4918597434  -1.719870553
H  4.7218756609  3.299637313  0.0722047362
H  6.2471769561  3.5236708026  -0.8225866232
H  -0.1136985645  -0.793965249  4.1389652042
H  4.8455766625  3.8559602951  -2.9503870063
H  3.3918276986  3.8304754962  -1.9100195102
H  0.6877159709  0.7931166949  3.9738947541
O  -1.3548080759  -0.3527214967  -1.1067345279
Si  -1.8707424207  -0.9310976782  -2.5909903043
C  -3.6413148329  -0.3148631017  -2.8482139183
C  -4.5739034063  -0.5578974742  -1.6511535008
C  -4.5480775588  0.6537186331  -0.733628762
N  -5.521524175  0.6208986668  0.42221197
C  -6.9727716646  0.7002318078  -0.0093022707
C  -7.3592561196  1.7603233105  -1.0480273604
C  -7.340625477  1.3565868543  -2.5221739809
S  -8.4908519556  0.0233943066  -2.9593345966
O  -9.8280506461  0.4361889709  -2.4096409137
O  -8.4582813389  -0.0427866998  -4.4599606913
O  -7.958856363  -1.2288578333  -2.3094731025
C  -5.2875379383  -0.6495101297  1.2378773253
C  -6.0567441595  -1.907769812  0.8475525705
C  -5.3956859457  -3.0978391523  1.5347583562
S  -6.1019924643  -4.677816305  1.0110198173
O  -5.3393556597  -5.7186769241  1.7841091052
O  -7.5621771379  -4.6289693623  1.3712391434
O  -5.8695019157  -4.7600171777  -0.4733563089
C  -5.1615523516  1.7401660689  1.3834782017
C  -5.2063469593  3.1805184494  0.8934946792
C  -4.468876085  4.0378130956  1.9167710622
S  -4.6920445894  5.8072818426  1.6124816262
O  -4.2953897345  6.0411027124  0.1808890784
O  -3.7881670878  6.4919014606  2.5999240251
O  -6.150761199  6.0832818286  1.8609067902
C  -0.8600854451  -0.3063029585  -4.0488578896
C  -1.9295981521  -2.815355905  -2.6229478532
H  -2.4865604843  -3.1507152834  -3.5121137899
H  -2.4348393143  -3.2187557515  -1.7307007057
H  -0.9217933887  -3.2533633138  -2.6744947296
H  -3.6390547202  0.7516148595  -3.1335890551
H  -4.0248432392  -0.8574567109  -3.7282715422
H  -5.6005125165  -0.7631832421  -1.9861567568
H  -4.240761988  -1.4501986784  -1.0995716628
H  -3.546241259  0.7674795027  -0.2937794513
H  -4.7666155032  1.5634808222  -1.3040196414
H  -7.5312640626  0.8653061241  0.9203112344
H  -7.2494565528  -0.2830384241  -0.3987936903
H  -6.7626520807  2.673520351  -0.9513129239
H  -8.3882552952  2.0573750707  -0.8000940656
H  -7.6619558156  2.2108662211  -3.1329905174
H  -6.3575187025  1.0354560579  -2.8902321358
H  -5.5139117984  -0.4002624512  2.2820535508
H  -4.2072477252  -0.8249155987  1.1727876459
H  -6.0539225756  -2.0763818491  -0.235306646
H  -1.4214109926  -0.4991489383  -4.977307846
H  -7.1045301051  -1.8364457931  1.168670332
H  -5.5115056968  -3.0597188274  2.6264679582
H  -4.3222452154  -3.1674777485  1.2996631757
H  -5.8321757849  1.62434014  2.2444717964
H  -4.1445764583  1.5021930081  1.716658187
H  -4.7179096017  3.3036803566  -0.0822647187
H  -6.2430506362  3.5325465749  0.8115794903
H  0.1137743404  -0.8098750537  -4.1334378897
H  -4.8413214228  3.8716339585  2.9381780874
H  -3.3874850927  3.8407250785  1.8980691137
H  -0.686192179  0.778557161  -3.9744577104
