118
E=-4874.840062 (radical: -4874.974716) / qh-G(298.15K)=-4874.015567 (wB97X-D/(aug-)cc-pVDZ, water solv.)
Si  2.2995755843  0.5324052686  0.859015759
C  4.2803898551  -5.6881216832  0.7373868035
C  4.6810876694  -4.3984021705  0.4039315637
C  3.8275237604  -3.3535321832  0.7595715577
C  2.6230594324  -3.591605967  1.4272808178
C  2.2122502077  -4.8839144333  1.7566227598
C  3.0606538944  -5.927463539  1.3996574222
C  3.8924774229  -1.9192912779  0.5301089388
N  2.7804392618  -1.3183396113  1.046505419
C  2.0063688719  -2.2918049387  1.6305598053
N  4.8837930746  -1.353405483  -0.1353877406
C  4.8646888655  -0.0799900652  -0.4711014952
N  0.7414795079  0.2499020467  1.9734452269
C  -0.1096356993  1.218932594  2.4299553242
C  -1.0561682487  0.6372694127  3.3634865003
C  -0.7524283566  -0.7269256558  3.4316782312
C  0.3774810545  -0.9366287481  2.5466634165
C  -2.1225582839  1.18178393  4.0848343679
C  -2.8783858862  0.3111935452  4.8601790898
C  -2.57317325  -1.063996063  4.9267949142
C  -1.5041691337  -1.6016157758  4.2202264876
N  0.9138039498  -2.1275110751  2.3423795512
C  5.9221640565  0.5413661296  -1.2548815304
C  5.5323965479  1.8674911318  -1.4593337284
C  4.2530793783  2.0269116821  -0.7845058406
N  3.8840842651  0.8403343508  -0.2100411842
C  7.1144416124  0.0436334978  -1.7802556389
C  7.9022110069  0.9239438898  -2.5159573289
C  7.5091713552  2.2597469749  -2.7221255778
C  6.3181170517  2.7523275294  -2.1971608708
N  3.5995165568  3.1697062366  -0.7630054731
N  1.8271945996  2.4021853243  0.6867269493
C  2.4746965255  3.3252752907  -0.0883201846
C  1.7615815404  4.5907081864  -0.0447021577
C  0.6640802057  4.3973437678  0.7996889133
C  0.7300276469  3.0155834705  1.2450419479
C  2.0073613187  5.8235426619  -0.6508419035
C  1.1130380673  6.8541680737  -0.3813632252
C  0.0073818862  6.6583660903  0.4684563999
C  -0.2354703751  5.4289883373  1.0723912089
N  -0.1473885242  2.4914678987  2.0727673938
H  2.8651329972  5.9675640419  -1.308197663
H  4.9172375573  -6.5341220982  0.4750071974
H  5.6183622154  -4.2085074127  -0.1195393706
H  1.2558753501  -5.0695485203  2.2481679723
H  2.7751970332  -6.9546371279  1.6315790368
H  -2.3531396773  2.2462189736  4.0325439078
H  -3.7235564972  0.6958902274  5.4323576656
H  -3.1888568251  -1.7148650419  5.5488808684
H  -1.2596275627  -2.6627732888  4.2737746451
H  7.4128009157  -0.9925963708  -1.6197132652
H  8.8429242347  0.5748383987  -2.944027341
H  8.1528624404  2.9187358303  -3.3064657465
H  6.0075602117  3.7853153715  -2.3554754713
H  1.2671925614  7.8337435554  -0.8361454808
H  -0.6756319469  7.4889338124  0.6527846854
H  -1.1015521613  5.2828763166  1.7188510601
O  3.2362152574  0.8357414228  2.3042376403
O  1.3387821545  0.1836653659  -0.5365577288
Si  1.4342203542  -0.4044087216  -2.1127623141
C  -0.3239823752  -0.4130721402  -2.8011981112
C  -1.3629242999  -1.0437017626  -1.8559911849
C  -2.0218931498  0.0564908384  -1.0412722101
N  -3.1913419833  -0.3550563272  -0.1786055709
C  -4.3952031973  -0.8121229784  -0.9780176074
C  -4.8764323574  0.0805371425  -2.1263210348
C  -4.2945516493  -0.1679576497  -3.5180304642
S  -4.6818551054  -1.7941594328  -4.2235824334
O  -6.1767526223  -1.932320347  -4.1472302555
O  -4.158953665  -1.7406465506  -5.6308947713
O  -3.9618601456  -2.8097296799  -3.372747589
C  -2.7617632864  -1.4642636734  0.7779421571
C  -2.8534429303  -2.914255499  0.3137774974
C  -2.1015247884  -3.7696640298  1.3296684433
S  -1.9174106726  -5.4872625433  0.7964584379
O  -1.1892747898  -6.1633573374  1.9258562461
O  -3.309242803  -6.0179298801  0.5870295305
O  -1.1148766374  -5.4362728231  -0.4749454869
C  -3.5279505951  0.8040891266  0.7480090259
C  -3.8271355205  2.1757303  0.1524930223
C  -3.6198854723  3.2199980846  1.2445661133
S  -4.1298503314  4.8731099492  0.7128626636
O  -3.4118553427  5.1340466766  -0.5818641932
O  -3.6976077872  5.7862777856  1.827023068
O  -5.6239079729  4.8115639263  0.546916201
C  2.5034454124  0.666966946  -3.22776969
C  2.0469325554  -2.1846119035  -2.1455547977
H  1.8401697143  -2.6147979299  -3.1382560072
H  1.5333430786  -2.8055010559  -1.3939980917
H  3.1307952688  -2.2562778556  -1.9746726976
H  -0.6266317028  0.6067836841  -3.0949173583
H  -0.2781858409  -0.9910222169  -3.7387802187
H  -2.1183744876  -1.6064005605  -2.4227637912
H  -0.869894783  -1.7633579851  -1.1850784137
H  -1.2846177425  0.5168268052  -0.367117512
H  -2.3920270373  0.8399825598  -1.710815009
H  -5.1944355202  -0.9277086173  -0.2355754449
H  -4.1589490957  -1.8015451735  -1.3802174371
H  -4.754550273  1.1451212199  -1.8999237763
H  -5.9625110037  -0.0787631632  -2.1886548645
H  -4.72985687  0.5508860342  -4.2250307729
H  -3.2026993349  -0.0716643881  -3.5770899403
H  -3.367942534  -1.3446060403  1.6848613489
H  -1.72533116  -1.2163139499  1.0362298803
H  -2.410117591  -3.0615527671  -0.6776588511
H  2.2793457181  0.4239949639  -4.2787039674
H  -3.8995312855  -3.2435990064  0.2648342964
H  -2.6167224742  -3.8060372026  2.2997798422
H  -1.0729893905  -3.4128795457  1.4902391386
H  -4.374184143  0.4665377911  1.3594540285
H  -2.6550411186  0.8847443476  1.4062827492
H  -3.1605942153  2.4223665441  -0.6834944876
H  -4.8632971251  2.2285554859  -0.2056451123
H  3.57941696  0.495935514  -3.0718615053
H  -4.2137022715  3.0045961681  2.1446996618
H  -2.5591561508  3.2988128983  1.5265843589
H  2.2905140178  1.7363872931  -3.073849029
H  3.3173630175  1.766481545  2.5239667893

