163
E=-6981.505364 (radical: -6981.643334) / qh-G(298.15K)=-6980.330872 (wB97X-D/(aug-)cc-pVDZ, water solv.)
Si  -0.5608989914  -0.3924483435  0.5846048614
C  -1.3371021315  -6.8918564316  0.7967193315
C  -0.5481127574  -5.8935432832  0.2356372842
C  -0.8681713048  -4.5736532385  0.5584572811
C  -1.9295206653  -4.2673653519  1.4159214465
C  -2.7282043368  -5.2671043759  1.9739183001
C  -2.4169568569  -6.5825668278  1.6473012614
C  -0.2936894583  -3.3045008898  0.1518255772
N  -0.9545653273  -2.2754693607  0.7706281201
C  -1.9423653667  -2.8220564028  1.5479671534
N  0.6741978697  -3.2155988118  -0.7396686988
C  1.1273374658  -2.0566738084  -1.1729527789
N  -1.896502508  0.0200292403  1.9121750187
C  -2.156549226  1.2568985901  2.4354989624
C  -3.1790082579  1.1511896898  3.4604800301
C  -3.5310198315  -0.2001384051  3.5272179921
C  -2.7036073821  -0.8868675443  2.5519538516
C  -3.8027141116  2.1071179683  4.2660926423
C  -4.8000920984  1.6611438003  5.1251248073
C  -5.1579365063  0.2991655401  5.1885987795
C  -4.5249253543  -0.652433277  4.3975934243
N  -2.7625284272  -2.1899863128  2.3647334005
C  2.1162725539  -1.9510566957  -2.2304164014
C  2.3349822977  -0.5848018107  -2.4300141158
C  1.4848230137  0.1081499351  -1.4788658454
N  0.7752812468  -0.8016034867  -0.7439101416
C  2.8090609543  -2.91532625  -2.9653053135
C  3.7338920706  -2.460173338  -3.897787642
C  3.9517039206  -1.0826452668  -4.1025265801
C  3.2528089139  -0.1247377348  -3.3774720594
N  1.4821899578  1.4229560084  -1.3587000569
N  -0.1649077415  1.4879491574  0.4010210083
C  0.7297721623  2.0430237932  -0.4743017923
C  0.7589757708  3.4876535308  -0.302389566
C  -0.1619499082  3.7802628394  0.7058845483
C  -0.7212556065  2.5053278514  1.129778496
C  1.497166298  4.4891485254  -0.931086452
C  1.2698651348  5.7983158972  -0.5147801413
C  0.3350217176  6.0944638915  0.4947153018
C  -0.3951247098  5.0895169454  1.1240384825
N  -1.6284197169  2.413479355  2.0789823211
H  2.2323238343  4.2543354041  -1.7015530396
H  -1.1188455556  -7.9371615824  0.5735375953
H  0.2933547426  -6.1334971955  -0.4154329519
H  -3.569330086  -5.028116384  2.6257330121
H  -3.0186015834  -7.3941562896  2.0589687256
H  -3.5198750368  3.1586910094  4.2162270285
H  -5.3174231869  2.3763406107  5.7657006399
H  -5.9457127087  -0.0110608303  5.8761560569
H  -4.7944259584  -1.7077789133  4.4459643152
H  2.6327128544  -3.9794702848  -2.8066773953
H  4.3019974481  -3.1806710515  -4.487443636
H  4.6829190706  -0.7657232827  -4.8470839279
H  3.4148213971  0.9416515428  -3.5351309682
H  1.8276076447  6.6133633477  -0.9782615366
H  0.1823370281  7.1336804299  0.7894758712
H  -1.12655304  5.3154472907  1.9006709745
O  -1.787300136  -0.2059162395  -0.6412984409
C  -1.9650510111  -1.0190795864  -1.7765192141
C  -3.3018985229  -0.7212239325  -2.4409379499
C  -4.5002095353  -0.8609281612  -1.4906022247
C  -4.7196015093  0.4415650712  -0.7348819226
N  -5.9702423241  0.5434879598  0.1075984509
C  -7.2486110042  0.574290009  -0.7043898903
C  -7.3282212602  1.5514402724  -1.880852809
C  -6.8850500811  1.0467136094  -3.2540132922
S  -7.8656310603  -0.3334201718  -3.9074494976
O  -9.3021501048  0.0980324957  -3.8078449628
O  -7.3922144408  -0.511050211  -5.3218947531
O  -7.5561570753  -1.5249888232  -3.0363156362
C  -6.0310838997  -0.6152875149  1.0965357316
C  -6.6556796022  -1.9326982749  0.6487646282
C  -6.2667624175  -2.9948091794  1.6728476132
S  -6.8220471556  -4.6510413154  1.2044482584
O  -6.3573165667  -5.5421689492  2.3228832304
O  -8.3202127252  -4.5775207631  1.0910052856
O  -6.1509282472  -4.9513091188  -0.1079756581
C  -5.8304906242  1.7680848965  1.003210304
C  -5.5306380364  3.1220524975  0.3641039299
C  -4.8736102682  4.0190303832  1.4082846421
S  -4.6686932692  5.7166694996  0.8152003461
O  -3.9108558836  5.6115178292  -0.4798972322
O  -3.8966252256  6.4164064122  1.8989925797
O  -6.0584782529  6.2634125042  0.6326159237
H  -1.1561676153  -0.8593247194  -2.5127622584
H  -1.9501378189  -2.0906233256  -1.50265145
H  -3.2807334853  0.2888533702  -2.8836084683
H  -3.4196232071  -1.4265462761  -3.2770321491
H  -5.4009020472  -1.1290264432  -2.0613706918
H  -4.2966349409  -1.6862589177  -0.7913184967
H  -3.8746863521  0.6267884007  -0.0598676848
H  -4.7578253835  1.2734530752  -1.445620095
H  -8.0366604118  0.8011642657  0.0241671244
H  -7.4142438659  -0.4399678788  -1.0796090035
H  -6.7936208978  2.4860431168  -1.6780958588
H  -8.3874357235  1.8346942506  -1.959638271
H  -7.0085090854  1.8499963769  -3.9925900429
H  -5.8406305306  0.712326595  -3.2984308338
H  -6.5759300095  -0.2446848125  1.9736640259
H  -4.9900425248  -0.7754973042  1.398623789
H  -6.3058535263  -2.2451812851  -0.3415092287
H  -7.7497004721  -1.8497103193  0.6049547465
H  -6.7055030976  -2.7963121129  2.6610891962
H  -5.1746422973  -3.0749745059  1.7832051207
H  -6.757368603  1.8227823717  1.587824971
H  -5.0189907959  1.507155129  1.6944059926
H  -4.8439516909  3.039069247  -0.4871194946
H  -6.4562876725  3.594794853  0.0106301087
H  -5.4683862811  4.0941340725  2.3301380365
H  -3.8613797613  3.669367177  1.6607227723
O  0.6853499529  -0.4826058691  1.8011588101
C  0.5742480088  -1.0743607028  3.0733335058
C  1.9456487307  -1.1981167896  3.7224563314
C  2.9604453538  -1.9625275985  2.8596423052
C  3.6374393264  -1.0100021446  1.884764534
N  4.7943071579  -1.5587645604  1.0818305879
C  6.0160046726  -1.87847174  1.9181358804
C  6.5157087301  -0.8097679261  2.8945205598
C  5.9679167945  -0.8402913872  4.321314162
S  6.3631748465  -2.3462387179  5.253579167
O  7.8495540745  -2.5313570842  5.1268393701
O  5.9145283316  -2.062290464  6.6587276594
O  5.5823697674  -3.4634158267  4.6080187911
C  4.3601230771  -2.8103916598  0.3270761458
C  4.4412120496  -4.1601827346  1.0326960383
C  3.6244247907  -5.155129926  0.2134306375
S  3.5032491387  -6.7766474076  1.0051661572
O  2.6815043658  -7.6059878048  0.0575797368
O  4.9131521002  -7.2777939979  1.1591373294
O  2.8210844827  -6.537201031  2.3244139234
C  5.1050535707  -0.5641103646  -0.0297760758
C  5.3737074766  0.8945645351  0.3331767012
C  5.0845153311  1.7597317119  -0.8894985526
S  5.5719615305  3.4841227856  -0.6368783276
O  4.8668290878  3.9330949061  0.6132965147
O  5.1064780459  4.203489844  -1.8723267989
O  7.0694171725  3.4751789411  -0.4887546406
H  -0.0829816117  -0.4802860164  3.7344268138
H  0.1360862546  -2.0875303783  3.0022489953
H  2.3324572567  -0.1951835553  3.9697343211
H  1.8129408298  -1.7266060182  4.6781897588
H  3.7084262129  -2.4478537059  3.5029816324
H  2.4271021524  -2.7584387546  2.3177756114
H  2.9039552724  -0.6385671158  1.1583086853
H  4.0241492115  -0.1432294555  2.4305659216
H  6.800166874  -2.1144292623  1.1882921963
H  5.7899664077  -2.7891520704  2.4807345354
H  6.3762189109  0.2040072042  2.5029683019
H  7.6042982441  -0.9495810012  2.9559215495
H  6.4226406772  -0.0263962521  4.9016618331
H  4.8782210286  -0.7290974052  4.390638422
H  4.9700660509  -2.849223642  -0.5839993917
H  3.3273074447  -2.6051790888  0.0237815743
H  4.0414927117  -4.1227328175  2.0522203733
H  5.4819793656  -4.5044981273  1.0953139331
H  4.0642885615  -5.3334964346  -0.7781128603
H  2.584710738  -4.819161273  0.0809968748
H  5.9593462248  -0.9808151214  -0.577950583
H  4.2313136124  -0.6159427587  -0.6916755513
H  4.7346892868  1.2454431658  1.1527431042
H  6.4205828186  1.0309215111  0.6342087456
H  5.6336118699  1.4219263738  -1.7803745703
H  4.0087257341  1.7874034611  -1.1186312142
